8500-Node/IEEE8500_VLN_Node.Txt

LINE-GROUND and LINE-LINE VOLTAGES BY BUS & NODE

Bus                  Node    VLN (kV)   Angle      pu     Base kV    Node-Node   VLL (kV)  Angle      pu

SOURCEBUS .......... 1       69.715 /_    0.0      1.05   115.000        1-2     120.75 /_   30.0      1.05
   -                 2       69.715 /_ -120.0      1.05   115.000        2-3     120.75 /_  -90.0      1.05
   -                 3       69.715 /_  120.0      1.05   115.000        3-1     120.75 /_  150.0      1.05
_HVMV_SUB_LSB ...... 1       7.3307 /_   -3.5    1.0182    12.470        1-2     12.689 /_   26.5    1.0175
   -                 2       7.3233 /_ -123.5    1.0172    12.470        2-3     12.702 /_  -93.6    1.0186
   -                 3       7.3238 /_  116.2    1.0173    12.470        3-1     12.675 /_  146.4    1.0165
HVMV_SUB_48332 ..... 1       7.3307 /_   -3.5    1.0182    12.470        1-2     12.689 /_   26.5    1.0175
   -                 2       7.3233 /_ -123.5    1.0172    12.470        2-3     12.702 /_  -93.6    1.0186
   -                 3       7.3238 /_  116.2    1.0173    12.470        3-1     12.675 /_  146.4    1.0165
M1009763 ........... 1       5.9438 /_  -12.5   0.82558    12.470        1-2     10.534 /_   17.3   0.84471
   -                 2       6.1392 /_ -133.8   0.85272    12.470        2-3     10.861 /_ -101.2   0.87094
   -                 3       6.5825 /_  109.0   0.91429    12.470        3-1     10.933 /_  136.6   0.87674
L2673322 ........... 2       6.1391 /_ -133.8    0.8527    12.470
M1069148 ........... 3       6.5174 /_  111.5   0.90525    12.470
L2673309 ........... 3       6.5171 /_  111.5   0.90521    12.470
M1069588 ........... 2       6.4119 /_ -132.1   0.89059    12.470
L2804270 ........... 2       6.4119 /_ -132.1   0.89059    12.470
M3036164 ........... 2       5.9328 /_ -133.8   0.82405    12.470
L2935553 ........... 2       5.9315 /_ -133.8   0.82387    12.470
M1209749 ........... 2       7.1156 /_ -125.0   0.98834    12.470
L2748840 ........... 2       7.1154 /_ -125.0   0.98831    12.470
M1108264 ........... 2       6.4729 /_ -127.0   0.89907    12.470
M1108263 ........... 2       6.4725 /_ -127.0   0.89901    12.470
L3085398 ........... 1       5.9841 /_  -12.5   0.83117    12.470        1-2       10.6 /_   17.4   0.85001
   -                 2       6.1792 /_ -133.8   0.85828    12.470        2-3     10.911 /_ -101.3   0.87494
   -                 3       6.5948 /_  108.9   0.91599    12.470        3-1     10.977 /_  136.6   0.88029
M1026891 ........... 1       5.9812 /_  -12.5   0.83078    12.470        1-2     10.593 /_   17.4   0.84947
   -                 2       6.1735 /_ -133.8   0.85748    12.470        2-3     10.904 /_ -101.3   0.87443
   -                 3       6.5935 /_  108.9   0.91582    12.470        3-1     10.973 /_  136.6   0.87997
L3216367 ........... 1       6.0656 /_  -11.9    0.8425    12.470        1-2     10.665 /_   17.7   0.85527
   -                 2       6.1751 /_ -133.2   0.85771    12.470        2-3     10.913 /_ -101.2   0.87512
   -                 3       6.5457 /_  108.7   0.90918    12.470        3-1      10.96 /_  137.1   0.87893
M1069468 ........... 1       6.0651 /_  -11.9   0.84242    12.470        1-2     10.664 /_   17.7   0.85514
   -                 2       6.1732 /_ -133.2   0.85744    12.470        2-3      10.91 /_ -101.2   0.87493
   -                 3       6.5449 /_  108.7   0.90907    12.470        3-1     10.959 /_  137.1    0.8788
M1142800 ........... 2        6.771 /_ -126.6   0.94047    12.470
M1142799 ........... 2       6.7708 /_ -126.6   0.94045    12.470
M1047592 ........... 1       6.1078 /_  -12.1   0.84836    12.470        1-2     10.781 /_   17.9   0.86455
   -                 2       6.2776 /_ -133.1   0.87195    12.470        2-3     11.063 /_ -101.0   0.88714
   -                 3         6.64 /_  109.1   0.92228    12.470        3-1     11.108 /_  137.2   0.89079
P827512 ............ 3         6.64 /_  109.1   0.92228    12.470
M1047339 ........... 1       6.3922 /_   -7.3   0.88785    12.470        1-2     10.967 /_   22.4   0.87945
   -                 2        6.268 /_ -127.3    0.8706    12.470        2-3     11.103 /_  -97.3   0.89037
   -                 3       6.4863 /_  111.6   0.90093    12.470        3-1     11.092 /_  141.9   0.88951
P895104 ............ 1       6.3921 /_   -7.3   0.88785    12.470
M1026915 ........... 1       5.9828 /_  -12.5   0.83099    12.470        1-2       10.6 /_   17.4   0.85002
   -                 2       6.1812 /_ -133.8   0.85855    12.470        2-3     10.912 /_ -101.3   0.87503
   -                 3       6.5938 /_  108.9   0.91587    12.470        3-1     10.975 /_  136.6   0.88015
M1026920 ........... 1        5.981 /_  -12.5   0.83075    12.470        1-2     10.597 /_   17.4   0.84984
   -                 2       6.1802 /_ -133.8   0.85842    12.470        2-3      10.91 /_ -101.3    0.8749
   -                 3       6.5928 /_  108.9   0.91573    12.470        3-1     10.973 /_  136.6   0.87996
N1138596 ........... 1       6.0499 /_  -11.9   0.84031    12.470
L3254207 ........... 1       6.0494 /_  -11.9   0.84025    12.470
M1069464 ........... 1       6.0642 /_  -11.9    0.8423    12.470        1-2     10.661 /_   17.7    0.8549
   -                 2       6.1697 /_ -133.2   0.85695    12.470        2-3     10.906 /_ -101.2    0.8746
   -                 3       6.5435 /_  108.7   0.90887    12.470        3-1     10.956 /_  137.1   0.87856
P873787 ............ 2       6.1697 /_ -133.2   0.85695    12.470
N1144665 ........... 1       6.1289 /_  -11.9   0.85128    12.470        1-2     10.808 /_   18.1   0.86671
   -                 2       6.2897 /_ -132.9   0.87363    12.470        2-3     11.078 /_ -100.9   0.88836
   -                 3       6.6353 /_  109.2   0.92162    12.470        3-1     11.115 /_  137.4   0.89137
M1047515 ........... 1       6.1242 /_  -11.9   0.85064    12.470        1-2     10.801 /_   18.1   0.86612
   -                 2       6.2862 /_ -132.9   0.87314    12.470        2-3     11.071 /_ -100.9   0.88781
   -                 3       6.6306 /_  109.2   0.92098    12.470        3-1     11.108 /_  137.4   0.89074
N1137002 ........... 1       6.0695 /_  -11.8   0.84304    12.470
M1047707 ........... 1       6.0692 /_  -11.8     0.843    12.470
L2729406 ........... 3       6.6353 /_  111.4   0.92162    12.470
L2897768 ........... 3       6.6347 /_  111.4   0.92155    12.470
L3649301 ........... 1       6.0805 /_  -12.2   0.84456    12.470
L3649302 ........... 1       6.0801 /_  -12.2   0.84451    12.470
L2970842 ........... 2       6.4951 /_ -127.0   0.90215    12.470
M1089113 ........... 2       6.4937 /_ -127.0   0.90195    12.470
M1047312 ........... 1       6.3609 /_   -7.3   0.88351    12.470        1-2     10.915 /_   22.3   0.87533
   -                 2       6.2367 /_ -127.4   0.86626    12.470        2-3     11.063 /_  -97.2   0.88716
   -                 3       6.4761 /_  111.7   0.89951    12.470        3-1     11.058 /_  141.9   0.88675
P893163 ............ 1       6.3608 /_   -7.3    0.8835    12.470
L2822871 ........... 1       6.0336 /_  -12.4   0.83805    12.470        1-2     10.681 /_   17.6   0.85656
   -                 2       6.2375 /_ -133.4   0.86637    12.470        2-3     10.989 /_ -101.2   0.88126
   -                 3       6.6139 /_  109.1   0.91865    12.470        3-1     11.037 /_  136.9   0.88511
M1026872 ........... 1       6.0314 /_  -12.4   0.83774    12.470        1-2     10.678 /_   17.6   0.85626
   -                 2        6.235 /_ -133.4   0.86602    12.470        2-3     10.986 /_ -101.2   0.88098
   -                 3       6.6129 /_  109.1   0.91851    12.470        3-1     11.034 /_  136.8   0.88488
M1026312 ........... 2       6.1042 /_ -127.7   0.84785    12.470
L2973163 ........... 2       6.1018 /_ -127.7   0.84753    12.470
L3728038 ........... 1       6.0697 /_  -12.0   0.84307    12.470
L3728039 ........... 1       6.0692 /_  -12.0     0.843    12.470
M1069567 ........... 2       6.4241 /_ -132.1   0.89229    12.470
M1069582 ........... 2       6.4155 /_ -132.1    0.8911    12.470
N1140830 ........... 1       5.9537 /_  -12.2   0.82695    12.470
L3216351 ........... 1       5.9536 /_  -12.2   0.82694    12.470
L2952007 ........... 3       7.0845 /_  115.0   0.98402    12.470
L2861158 ........... 3       7.0841 /_  115.0   0.98397    12.470
N1140827 ........... 1       5.9582 /_  -12.2   0.82757    12.470        1-2     10.601 /_   18.3    0.8501
   -                 2       6.2467 /_ -132.8   0.86764    12.470        2-3     10.929 /_ -101.1   0.87644
   -                 3       6.5043 /_  109.2   0.90343    12.470        3-1     10.874 /_  137.1   0.87204
M1026726 ........... 1       5.9581 /_  -12.2   0.82757    12.470        1-2     10.601 /_   18.3   0.85009
   -                 2       6.2465 /_ -132.8   0.86763    12.470        2-3     10.929 /_ -101.1   0.87642
   -                 3       6.5042 /_  109.2   0.90342    12.470        3-1     10.874 /_  137.1   0.87203
L2730106 ........... 1       6.6193 /_   -8.9    0.9194    12.470        1-2     11.543 /_   21.0   0.92563
   -                 2       6.6742 /_ -129.4   0.92703    12.470        2-3     11.714 /_  -98.5   0.93937
   -                 3        6.896 /_  111.2   0.95783    12.470        3-1     11.713 /_  140.5    0.9393
N1142099 ........... 1       6.6172 /_   -8.9   0.91911    12.470        1-2      11.54 /_   21.0   0.92538
   -                 2       6.6726 /_ -129.4   0.92681    12.470        2-3     11.711 /_  -98.5   0.93916
   -                 3       6.8951 /_  111.2   0.95771    12.470        3-1     11.711 /_  140.5   0.93912
M1026658 ........... 1       5.9524 /_  -12.3   0.82677    12.470        1-2     10.593 /_   18.3   0.84951
   -                 2       6.2481 /_ -132.8   0.86784    12.470        2-3     10.921 /_ -101.1   0.87581
   -                 3       6.4904 /_  109.2    0.9015    12.470        3-1     10.858 /_  137.1   0.87074
L3172805 ........... 1       5.9522 /_  -12.3   0.82675    12.470
P895112 ............ 1       6.9158 /_   -6.8   0.96058    12.470
L3048962 ........... 1       6.9157 /_   -6.8   0.96057    12.470
L2991914 ........... 1       6.0831 /_  -11.9   0.84493    12.470        1-2      10.74 /_   18.1   0.86129
   -                 2       6.2618 /_ -132.8   0.86975    12.470        2-3     11.018 /_ -100.9   0.88358
   -                 3       6.5925 /_  109.2   0.91569    12.470        3-1     11.041 /_  137.3   0.88542
M1047503 ........... 1       6.0799 /_  -11.9   0.84449    12.470        1-2     10.737 /_   18.1   0.86101
   -                 2       6.2615 /_ -132.8   0.86971    12.470        2-3     11.016 /_ -101.0    0.8834
   -                 3       6.5903 /_  109.2   0.91537    12.470        3-1     11.037 /_  137.3   0.88508
M1047751 ........... 1       6.0113 /_  -11.5   0.83495    12.470
L2973154 ........... 1       6.0113 /_  -11.5   0.83495    12.470
L3010565 ........... 3       6.5144 /_  111.5   0.90483    12.470
L2897775 ........... 3       6.5141 /_  111.5   0.90479    12.470
M1125955 ........... 3       6.9689 /_  112.2   0.96796    12.470
M1125957 ........... 3       6.9689 /_  112.2   0.96796    12.470
M1069640 ........... 2       6.3897 /_ -132.2   0.88751    12.470
L2804269 ........... 2        6.389 /_ -132.2   0.88742    12.470
M1026702 ........... 1       5.9785 /_  -12.2    0.8304    12.470        1-2     10.625 /_   18.2   0.85203
   -                 2       6.2504 /_ -132.8   0.86817    12.470        2-3     10.947 /_ -101.0    0.8779
   -                 3       6.5225 /_  109.2   0.90596    12.470        3-1     10.905 /_  137.1   0.87453
N1139551 ........... 1       5.9688 /_  -12.2   0.82906    12.470        1-2     10.615 /_   18.3   0.85121
   -                 2       6.2498 /_ -132.8   0.86808    12.470        2-3     10.941 /_ -101.1   0.87741
   -                 3       6.5162 /_  109.2   0.90509    12.470        3-1     10.893 /_  137.1   0.87354
N1136355 ........... 2       6.4625 /_ -132.0   0.89763    12.470
L2783231 ........... 2       6.4556 /_ -132.0   0.89667    12.470
L2748143 ........... 1       6.3709 /_  -10.6    0.8849    12.470
L3251854 ........... 1       6.3708 /_  -10.6   0.88488    12.470
M1069610 ........... 2       6.4001 /_ -132.1   0.88895    12.470
M1069600 ........... 2          6.4 /_ -132.1   0.88894    12.470
M1069424 ........... 1       6.0574 /_  -11.9   0.84136    12.470        1-2     10.638 /_   17.6    0.8531
   -                 2       6.1432 /_ -133.3   0.85327    12.470        2-3     10.875 /_ -101.3   0.87208
   -                 3       6.5325 /_  108.6   0.90734    12.470        3-1     10.933 /_  137.1   0.87672
L2935549 ........... 1       6.0565 /_  -11.9   0.84123    12.470        1-2     10.635 /_   17.6   0.85286
   -                 2       6.1396 /_ -133.3   0.85277    12.470        2-3     10.871 /_ -101.3   0.87174
   -                 3       6.5311 /_  108.5   0.90716    12.470        3-1      10.93 /_  137.1   0.87648
P895089 ............ 3       6.8286 /_  110.2   0.94847    12.470
L3235242 ........... 3       6.8283 /_  110.2   0.94844    12.470
M1026795 ........... 1       6.0495 /_  -12.0   0.84025    12.470        1-2     10.703 /_   18.1   0.85829
   -                 2       6.2586 /_ -132.8    0.8693    12.470        2-3     10.995 /_ -101.0   0.88171
   -                 3       6.5686 /_  109.2   0.91237    12.470        3-1     10.997 /_  137.3   0.88185
N1140522 ........... 3       6.5686 /_  109.2   0.91236    12.470
L3030199 ........... 1       6.8515 /_   -6.9   0.95165    12.470        1-2     11.785 /_   23.1   0.94504
   -                 2       6.7709 /_ -126.6   0.94046    12.470        2-3     11.847 /_  -97.1   0.95004
   -                 3       6.8327 /_  112.2   0.94904    12.470        3-1     11.796 /_  142.7   0.94597
M1125934 ........... 1       6.8512 /_   -6.9   0.95161    12.470        1-2     11.783 /_   23.1   0.94493
   -                 2       6.7697 /_ -126.6   0.94029    12.470        2-3     11.846 /_  -97.1   0.94992
   -                 3       6.8314 /_  112.2   0.94887    12.470        3-1     11.794 /_  142.7   0.94582
M1069189 ........... 1       6.5633 /_   -7.3   0.91163    12.470        1-2     11.248 /_   22.6   0.90199
   -                 2       6.4434 /_ -127.0   0.89497    12.470        2-3     11.318 /_  -97.5   0.90764
   -                 3       6.5302 /_  111.5   0.90703    12.470        3-1     11.271 /_  142.2   0.90383
L2860487 ........... 3       6.5301 /_  111.5   0.90701    12.470
221_312488 ......... 1       6.7001 /_   -8.1   0.93062    12.470        1-2      11.65 /_   21.7   0.93428
   -                 2       6.7227 /_ -128.5   0.93377    12.470        2-3     11.802 /_  -97.9   0.94644
   -                 3        6.927 /_  111.8   0.96215    12.470        3-1     11.795 /_  141.3   0.94585
M1089183 ........... 1       6.7001 /_   -8.1   0.93062    12.470        1-2      11.65 /_   21.7   0.93428
   -                 2       6.7227 /_ -128.5   0.93376    12.470        2-3     11.802 /_  -97.9   0.94644
   -                 3        6.927 /_  111.8   0.96215    12.470        3-1     11.795 /_  141.3   0.94585
M1108464 ........... 2       6.7206 /_ -128.6   0.93348    12.470
L3102286 ........... 2       6.7201 /_ -128.6   0.93341    12.470
F739845 ............ 1       6.3453 /_   -7.3   0.88135    12.470        1-2     10.885 /_   22.3   0.87287
   -                 2       6.2135 /_ -127.4   0.86304    12.470        2-3     11.035 /_  -97.2   0.88494
   -                 3         6.47 /_  111.7   0.89866    12.470        3-1     11.038 /_  141.9    0.8852
293471 ............. 1       6.3452 /_   -7.3   0.88134    12.470        1-2     10.885 /_   22.3   0.87286
   -                 2       6.2134 /_ -127.4   0.86303    12.470        2-3     11.035 /_  -97.2   0.88493
   -                 3       6.4699 /_  111.7   0.89865    12.470        3-1     11.038 /_  141.9    0.8852
P827499 ............ 1       6.0555 /_  -11.9   0.84109    12.470
N1139254 ........... 1       6.0555 /_  -11.9   0.84109    12.470
M1026657 ........... 1       5.9489 /_  -12.2   0.82629    12.470
M1026656 ........... 1       5.9487 /_  -12.2   0.82626    12.470
M1108299 ........... 2       6.7284 /_ -126.8   0.93456    12.470
M1108300 ........... 2       6.7284 /_ -126.8   0.93456    12.470
L3198355 ........... 2        6.728 /_ -126.8    0.9345    12.470
L2805037 ........... 2        6.728 /_ -126.8    0.9345    12.470
N1137994 ........... 3       6.5511 /_  108.8   0.90993    12.470
M1069484 ........... 3       6.5497 /_  108.8   0.90973    12.470
L2860504 ........... 1       5.9545 /_  -12.2   0.82707    12.470
L2860493 ........... 1       5.9539 /_  -12.2   0.82698    12.470
M1026783 ........... 1       6.0401 /_  -12.0   0.83895    12.470        1-2     10.693 /_   18.1   0.85747
   -                 2       6.2576 /_ -132.8   0.86916    12.470        2-3     10.989 /_ -101.0   0.88123
   -                 3       6.5628 /_  109.2   0.91155    12.470        3-1     10.985 /_  137.2    0.8809
M1026780 ........... 1       6.0386 /_  -12.0   0.83874    12.470        1-2     10.691 /_   18.1   0.85734
   -                 2       6.2574 /_ -132.8   0.86914    12.470        2-3     10.988 /_ -101.0   0.88115
   -                 3       6.5618 /_  109.2   0.91142    12.470        3-1     10.983 /_  137.2   0.88074
P895111 ............ 3       6.9946 /_  112.6   0.97153    12.470
L2895496 ........... 3       6.9942 /_  112.6   0.97148    12.470
N1140819 ........... 1       5.9619 /_  -12.2   0.82809    12.470        1-2     10.606 /_   18.3   0.85049
   -                 2       6.2477 /_ -132.8   0.86779    12.470        2-3     10.933 /_ -101.1   0.87678
   -                 3       6.5086 /_  109.2   0.90403    12.470        3-1     10.881 /_  137.1   0.87257
M1026700 ........... 1       5.9609 /_  -12.2   0.82795    12.470        1-2     10.604 /_   18.3   0.85038
   -                 2       6.2473 /_ -132.8   0.86774    12.470        2-3     10.932 /_ -101.1   0.87668
   -                 3       6.5074 /_  109.2   0.90386    12.470        3-1     10.879 /_  137.1   0.87242
M1089173 ........... 3        6.638 /_  111.4     0.922    12.470
L2935551 ........... 3       6.6371 /_  111.4   0.92187    12.470
M1026344 ........... 1       6.3032 /_   -7.2    0.8755    12.470
M1026364 ........... 1        6.303 /_   -7.2   0.87546    12.470
L2879070 ........... 1       6.0975 /_  -12.1   0.84693    12.470        1-2     10.768 /_   17.8   0.86349
   -                 2       6.2737 /_ -133.1    0.8714    12.470        2-3     11.054 /_ -101.0   0.88644
   -                 3       6.6361 /_  109.1   0.92174    12.470        3-1     11.099 /_  137.1   0.89003
L3216345 ........... 1       6.0905 /_  -12.2   0.84596    12.470        1-2     10.759 /_   17.8   0.86279
   -                 2       6.2713 /_ -133.1   0.87106    12.470        2-3     11.048 /_ -101.0   0.88599
   -                 3       6.6339 /_  109.1   0.92143    12.470        3-1     11.093 /_  137.1   0.88955
M1069428 ........... 1       6.0583 /_  -11.9   0.84149    12.470        1-2     10.641 /_   17.6   0.85332
   -                 2       6.1462 /_ -133.3   0.85369    12.470        2-3     10.878 /_ -101.3   0.87237
   -                 3       6.5336 /_  108.6    0.9075    12.470        3-1     10.935 /_  137.1   0.87693
N1139257 ........... 2       6.1462 /_ -133.3   0.85369    12.470
L2991919 ........... 1       6.2995 /_   -7.2   0.87499    12.470
M1026361 ........... 1       6.2972 /_   -7.2   0.87466    12.470
N1147857 ........... 1       5.9438 /_  -12.5   0.82558    12.470
M1009742 ........... 1       5.9423 /_  -12.5   0.82537    12.470
Q14412 ............. 1       6.3837 /_   -7.3   0.88668    12.470        1-2     10.953 /_   22.4   0.87835
   -                 2       6.2597 /_ -127.3   0.86946    12.470        2-3     11.092 /_  -97.3   0.88952
   -                 3       6.4837 /_  111.7   0.90057    12.470        3-1     11.083 /_  141.9   0.88878
M1047325 ........... 1       6.3813 /_   -7.3   0.88634    12.470        1-2     10.949 /_   22.4   0.87804
   -                 2       6.2574 /_ -127.3   0.86914    12.470        2-3     11.089 /_  -97.3   0.88929
   -                 3       6.4829 /_  111.7   0.90046    12.470        3-1      11.08 /_  141.9   0.88857
N1139263 ........... 1        6.065 /_  -11.9   0.84241    12.470
L3048227 ........... 1       6.0649 /_  -11.9    0.8424    12.470
P827506 ............ 1        6.065 /_  -11.9   0.84242    12.470
M1069469 ........... 1        6.065 /_  -11.9   0.84241    12.470
M1027019 ........... 2       6.1457 /_ -133.8   0.85363    12.470
L2785522 ........... 2       6.1456 /_ -133.8   0.85361    12.470
L3216338 ........... 2       6.0938 /_ -134.0   0.84641    12.470
L2973146 ........... 2       6.0937 /_ -134.0    0.8464    12.470
M3037452 ........... 1        6.282 /_   -7.3   0.87255    12.470
L2973164 ........... 1       6.2819 /_   -7.3   0.87254    12.470
L3120376 ........... 1       6.0427 /_  -12.4   0.83932    12.470
M1026925 ........... 1       6.0412 /_  -12.4    0.8391    12.470
M1047612 ........... 3       6.6469 /_  109.1   0.92324    12.470
P828360 ............ 3       6.6469 /_  109.1   0.92323    12.470
M1089195 ........... 3       6.8281 /_  110.2    0.9484    12.470
L3141393 ........... 3       6.8278 /_  110.2   0.94837    12.470
M1026946 ........... 2       6.1612 /_ -133.8   0.85578    12.470
M1026940 ........... 2       6.1608 /_ -133.8   0.85571    12.470
M1047471 ........... 2       6.0201 /_ -133.7   0.83618    12.470
L3216349 ........... 2       6.0201 /_ -133.7   0.83618    12.470
M1047401 ........... 1       5.9059 /_  -12.4   0.82031    12.470
L2748132 ........... 1       5.9058 /_  -12.4    0.8203    12.470
L3122820 ........... 1       5.9311 /_  -12.3   0.82381    12.470
L3141398 ........... 1        5.931 /_  -12.3   0.82381    12.470
M1108360 ........... 3       6.7108 /_  111.6   0.93211    12.470
L3048968 ........... 3       6.7106 /_  111.5   0.93208    12.470
L2801950 ........... 3       6.4951 /_  111.4   0.90215    12.470
M1069224 ........... 3       6.4945 /_  111.4   0.90206    12.470
L2766746 ........... 3       6.5172 /_  108.8   0.90522    12.470
M1027073 ........... 3       6.5151 /_  108.8   0.90493    12.470
M1142873 ........... 3       6.9939 /_  112.6   0.97144    12.470
M1069181 ........... 1       6.5197 /_   -7.3   0.90557    12.470
L2973151 ........... 1       6.5181 /_   -7.3   0.90535    12.470
L3179682 ........... 3       6.7929 /_  111.7   0.94352    12.470
L2786274 ........... 3       6.7928 /_  111.7   0.94351    12.470
L3066816 ........... 1       5.9528 /_  -12.2   0.82683    12.470
M1026667 ........... 1       5.9525 /_  -12.2   0.82678    12.470
M1108529 ........... 1       6.5516 /_   -9.4   0.91001    12.470        1-2     11.443 /_   20.4   0.91765
   -                 2       6.6182 /_ -130.1   0.91925    12.470        2-3     11.627 /_  -99.0   0.93243
   -                 3       6.8686 /_  110.8   0.95404    12.470        3-1     11.637 /_  139.9   0.93324
M1108532 ........... 1       6.5494 /_   -9.4    0.9097    12.470        1-2      11.44 /_   20.4    0.9174
   -                 2       6.6164 /_ -130.1     0.919    12.470        2-3     11.625 /_  -99.0    0.9322
   -                 3       6.8679 /_  110.8   0.95394    12.470        3-1     11.635 /_  139.9   0.93305
L2766723 ........... 1       5.9537 /_  -12.2   0.82696    12.470
L3122822 ........... 1       5.9536 /_  -12.2   0.82694    12.470
L2673312 ........... 1        5.935 /_  -12.6   0.82436    12.470
L3235247 ........... 1       5.9349 /_  -12.6   0.82434    12.470
M1166391 ........... 3       7.0997 /_  115.1   0.98613    12.470
L3254873 ........... 3       7.0956 /_  115.1   0.98556    12.470
L2861157 ........... 3       7.1402 /_  115.2   0.99176    12.470
P901951 ............ 3       7.1364 /_  115.1   0.99123    12.470
M1047346 ........... 1       6.4053 /_   -7.3   0.88969    12.470        1-2     10.987 /_   22.4   0.88107
   -                 2       6.2793 /_ -127.3   0.87218    12.470        2-3     11.118 /_  -97.3   0.89155
   -                 3       6.4899 /_  111.6   0.90143    12.470        3-1     11.106 /_  142.0   0.89061
M1047345 ........... 1       6.4018 /_   -7.3    0.8892    12.470        1-2     10.982 /_   22.4   0.88065
   -                 2       6.2764 /_ -127.3   0.87178    12.470        2-3     11.114 /_  -97.3   0.89125
   -                 3        6.489 /_  111.6    0.9013    12.470        3-1     11.102 /_  142.0   0.89032
L2989596 ........... 2       6.4328 /_ -132.1   0.89351    12.470
L2822873 ........... 2       6.4328 /_ -132.1   0.89349    12.470
M1108328 ........... 3       6.7692 /_  111.7   0.94022    12.470
L2875754 ........... 3       6.7691 /_  111.7   0.94021    12.470
L2786204 ........... 3       7.2044 /_  115.3    1.0007    12.470
M1209819 ........... 3          7.2 /_  115.3    1.0001    12.470
P901972 ............ 1        5.942 /_  -12.5   0.82533    12.470
M1009726 ........... 1       5.9396 /_  -12.5   0.82499    12.470
M1047702 ........... 1       6.0695 /_  -11.8   0.84304    12.470
N1137001 ........... 1       6.0695 /_  -11.8   0.84304    12.470
L2767340 ........... 1       6.7513 /_   -7.9   0.93774    12.470        1-2     11.731 /_   22.0   0.94071
   -                 2        6.771 /_ -128.3   0.94047    12.470        2-3     11.871 /_  -97.8   0.95195
   -                 3       6.9463 /_  111.9   0.96482    12.470        3-1     11.852 /_  141.5   0.95041
M3037449 ........... 1       6.7516 /_   -7.9   0.93778    12.470        1-2     11.731 /_   22.0   0.94071
   -                 2       6.7709 /_ -128.3   0.94046    12.470        2-3      11.87 /_  -97.8   0.95189
   -                 3       6.9453 /_  111.9   0.96468    12.470        3-1     11.851 /_  141.5   0.95035
M1047457 ........... 2        6.027 /_ -133.7   0.83714    12.470
L2710546 ........... 2       6.0262 /_ -133.7   0.83703    12.470
L2674027 ........... 1       6.5672 /_   -9.3   0.91217    12.470        1-2     11.467 /_   20.6   0.91953
   -                 2       6.6321 /_ -129.9   0.92118    12.470        2-3     11.648 /_  -98.9   0.93411
   -                 3       6.8753 /_  110.9   0.95497    12.470        3-1     11.656 /_  140.1   0.93469
L2692633 ........... 1       6.5614 /_   -9.3   0.91136    12.470        1-2     11.458 /_   20.5   0.91883
   -                 2       6.6269 /_ -130.0   0.92046    12.470        2-3     11.641 /_  -98.9   0.93349
   -                 3       6.8729 /_  110.9   0.95463    12.470        3-1     11.649 /_  140.0   0.93416
N1142108 ........... 1       6.8449 /_   -7.0   0.95073    12.470
L2674051 ........... 1       6.8448 /_   -7.0   0.95072    12.470
M1069135 ........... 1       6.4295 /_   -7.3   0.89304    12.470        1-2     11.024 /_   22.4   0.88401
   -                 2       6.2988 /_ -127.3   0.87489    12.470        2-3     11.145 /_  -97.3   0.89373
   -                 3       6.4986 /_  111.6   0.90264    12.470        3-1     11.133 /_  142.0   0.89275
R18242 ............. 1       6.4235 /_   -7.3   0.89221    12.470        1-2     11.015 /_   22.4   0.88329
   -                 2       6.2942 /_ -127.3   0.87424    12.470        2-3     11.138 /_  -97.3   0.89321
   -                 3       6.4965 /_  111.6   0.90235    12.470        3-1     11.126 /_  142.0   0.89223
M1047534 ........... 1       6.2005 /_  -11.6   0.86123    12.470        1-2     10.922 /_   18.2   0.87583
   -                 2       6.3459 /_ -132.7   0.88143    12.470        2-3     11.179 /_ -100.8   0.89648
   -                 3        6.694 /_  109.3   0.92979    12.470        3-1     11.224 /_  137.6   0.90005
N1136663 ........... 1        6.182 /_  -11.7   0.85867    12.470        1-2     10.892 /_   18.1   0.87349
   -                 2       6.3312 /_ -132.8   0.87939    12.470        2-3     11.154 /_ -100.8   0.89448
   -                 3       6.6814 /_  109.3   0.92803    12.470        3-1     11.198 /_  137.5   0.89803
M1108508 ........... 3       6.8515 /_  110.6   0.95165    12.470
L3097861 ........... 3       6.8514 /_  110.6   0.95164    12.470
M1069560 ........... 2       6.4291 /_ -132.1   0.89298    12.470
L2973153 ........... 1       6.0792 /_  -11.8   0.84438    12.470        1-2     10.686 /_   17.7   0.85691
   -                 2       6.1713 /_ -133.2   0.85718    12.470        2-3     10.973 /_ -100.7   0.87996
   -                 3        6.653 /_  109.1   0.92409    12.470        3-1     11.082 /_  137.2   0.88869
N1136998 ........... 1       6.0787 /_  -11.8   0.84431    12.470        1-2     10.684 /_   17.7   0.85682
   -                 2       6.1702 /_ -133.2   0.85703    12.470        2-3     10.972 /_ -100.7   0.87988
   -                 3       6.6531 /_  109.1    0.9241    12.470        3-1     11.082 /_  137.2   0.88866
L2898515 ........... 3       7.1012 /_  113.9   0.98634    12.470
M1166387 ........... 3        7.101 /_  113.9   0.98631    12.470
M1047442 ........... 2       6.0532 /_ -133.6   0.84077    12.470
L3235250 ........... 2       6.0531 /_ -133.6   0.84077    12.470
M1142871 ........... 1       6.8917 /_   -7.0   0.95725    12.470        1-2      11.93 /_   23.0    0.9567
   -                 2       6.8807 /_ -127.0   0.95571    12.470        2-3     12.042 /_  -96.9   0.96569
   -                 3       6.9963 /_  112.6   0.97177    12.470        3-1         12 /_  142.6   0.96234
M1142874 ........... 1       6.8875 /_   -7.0   0.95666    12.470        1-2     11.924 /_   22.9    0.9562
   -                 2       6.8772 /_ -127.1   0.95523    12.470        2-3     12.037 /_  -97.0   0.96526
   -                 3       6.9946 /_  112.6   0.97153    12.470        3-1     11.996 /_  142.5   0.96196
L2955081 ........... 1       6.8441 /_   -7.1   0.95063    12.470        1-2     11.745 /_   22.8   0.94189
   -                 2       6.7389 /_ -126.8   0.93602    12.470        2-3     11.808 /_  -97.3   0.94688
   -                 3       6.7972 /_  111.8   0.94411    12.470        3-1     11.745 /_  142.5   0.94183
M1108315 ........... 1       6.8435 /_   -7.1   0.95054    12.470        1-2     11.741 /_   22.8   0.94155
   -                 2       6.7354 /_ -126.8   0.93553    12.470        2-3     11.803 /_  -97.4   0.94654
   -                 3       6.7931 /_  111.7   0.94355    12.470        3-1     11.739 /_  142.5   0.94137
L2973162 ........... 1       6.3033 /_   -7.2   0.87551    12.470        1-2     10.807 /_   22.2   0.86666
   -                 2       6.1541 /_ -127.6   0.85479    12.470        2-3     10.978 /_  -97.1   0.88033
   -                 3       6.4749 /_  111.7   0.89934    12.470        3-1     11.007 /_  141.8   0.88265
M1026333 ........... 1       6.3028 /_   -7.2   0.87544    12.470        1-2     10.805 /_   22.2   0.86646
   -                 2       6.1508 /_ -127.6   0.85433    12.470        2-3     10.975 /_  -97.1   0.88012
   -                 3       6.4756 /_  111.7   0.89945    12.470        3-1     11.007 /_  141.8   0.88264
M1009832 ........... 2       6.1014 /_ -133.9   0.84746    12.470
L2860479 ........... 2       6.1013 /_ -133.9   0.84746    12.470
M1026854 ........... 1       6.0563 /_  -12.3    0.8412    12.470        1-2     10.715 /_   17.7   0.85924
   -                 2       6.2562 /_ -133.3   0.86896    12.470        2-3     11.018 /_ -101.1   0.88355
   -                 3       6.6225 /_  109.1   0.91984    12.470        3-1     11.062 /_  137.0   0.88708
P901894 ............ 1       6.0561 /_  -12.3   0.84118    12.470
M1026485 ........... 2       6.2389 /_ -127.4   0.86656    12.470
M1026492 ........... 2       6.2386 /_ -127.4   0.86653    12.470
D6413567_3_INT ..... 1       6.5427 /_   -7.3   0.90876    12.470        1-2     11.217 /_   22.5   0.89952
   -                 2       6.4269 /_ -127.0   0.89268    12.470        2-3     11.297 /_  -97.5   0.90591
   -                 3       6.5251 /_  111.5   0.90632    12.470        3-1      11.25 /_  142.2   0.90217
E182724 ............ 1       6.5426 /_   -7.3   0.90875    12.470        1-2     11.217 /_   22.5   0.89951
   -                 2       6.4268 /_ -127.0   0.89266    12.470        2-3     11.297 /_  -97.5    0.9059
   -                 3        6.525 /_  111.5   0.90631    12.470        3-1      11.25 /_  142.2   0.90216
N1139541 ........... 1       6.5448 /_   -7.3   0.90905    12.470        1-2      11.22 /_   22.5   0.89978
   -                 2       6.4286 /_ -127.0   0.89291    12.470        2-3     11.299 /_  -97.5   0.90609
   -                 3       6.5256 /_  111.5   0.90639    12.470        3-1     11.252 /_  142.2   0.90234
M4122658 ........... 1       6.6904 /_   -8.4   0.92929    12.470        1-2     11.645 /_   21.5   0.93388
   -                 2       6.7275 /_ -128.8   0.93443    12.470        2-3       11.8 /_  -98.1   0.94626
   -                 3       6.9248 /_  111.6   0.96184    12.470        3-1      11.79 /_  141.1   0.94545
L2933135 ........... 1       6.6361 /_   -8.8   0.92174    12.470        1-2     11.567 /_   21.1   0.92759
   -                 2        6.687 /_ -129.3   0.92881    12.470        2-3     11.734 /_  -98.4   0.94102
   -                 3       6.9028 /_  111.3   0.95878    12.470        3-1     11.731 /_  140.6   0.94077
L2729414 ........... 1       5.9785 /_  -12.2   0.83039    12.470        1-2     10.625 /_   18.2   0.85202
   -                 2       6.2504 /_ -132.8   0.86816    12.470        2-3     10.947 /_ -101.0   0.87789
   -                 3       6.5224 /_  109.2   0.90595    12.470        3-1     10.905 /_  137.1   0.87452
L2729430 ........... 2       6.1347 /_ -133.9   0.85209    12.470
L2766742 ........... 2       6.1284 /_ -133.9   0.85122    12.470
M1026972 ........... 2       5.9344 /_ -133.8   0.82428    12.470
L2860483 ........... 2       5.9343 /_ -133.8   0.82425    12.470
L2860490 ........... 1       6.4143 /_   -7.3   0.89092    12.470        1-2     11.001 /_   22.4   0.88217
   -                 2       6.2867 /_ -127.3   0.87321    12.470        2-3     11.128 /_  -97.3   0.89237
   -                 3       6.4931 /_  111.6   0.90188    12.470        3-1     11.116 /_  142.0    0.8914
L3104134 ........... 1       6.4091 /_   -7.3    0.8902    12.470        1-2     10.993 /_   22.4   0.88152
   -                 2       6.2824 /_ -127.3    0.8726    12.470        2-3     11.122 /_  -97.3   0.89188
   -                 3       6.4912 /_  111.6   0.90161    12.470        3-1      11.11 /_  142.0   0.89094
M1089144 ........... 1       6.7005 /_   -7.2   0.93068    12.470
P827522 ............ 1       6.7005 /_   -7.2   0.93068    12.470
M1089118 ........... 1       6.6088 /_   -7.3   0.91794    12.470        1-2     11.325 /_   22.6   0.90816
   -                 2       6.4872 /_ -127.0   0.90106    12.470        2-3      11.39 /_  -97.5   0.91339
   -                 3       6.5674 /_  111.5    0.9122    12.470        3-1     11.341 /_  142.2   0.90948
L3048208 ........... 1       6.6087 /_   -7.3   0.91793    12.470
M1108505 ........... 1       6.5826 /_   -9.2   0.91431    12.470        1-2      11.49 /_   20.7   0.92138
   -                 2       6.6459 /_ -129.7   0.92309    12.470        2-3     11.669 /_  -98.8   0.93575
   -                 3       6.8815 /_  111.0   0.95582    12.470        3-1     11.673 /_  140.2   0.93612
L2955047 ........... 1       6.5779 /_   -9.2   0.91365    12.470        1-2     11.483 /_   20.7   0.92081
   -                 2       6.6417 /_ -129.8   0.92251    12.470        2-3     11.663 /_  -98.8   0.93525
   -                 3       6.8796 /_  111.0   0.95556    12.470        3-1     11.668 /_  140.2   0.93569
M1089148 ........... 1       6.6977 /_   -7.2   0.93029    12.470
L2766721 ........... 1       6.6976 /_   -7.2   0.93027    12.470
M1026745 ........... 2       6.0169 /_ -133.7   0.83573    12.470
L3029183 ........... 2       6.0168 /_ -133.7   0.83572    12.470
L2710512 ........... 2       5.9101 /_ -133.9   0.82089    12.470
M1047828 ........... 2       5.9063 /_ -133.9   0.82037    12.470
M1047342 ........... 1       6.4013 /_   -7.3   0.88912    12.470
L3197645 ........... 1       6.4012 /_   -7.3    0.8891    12.470
M1069192 ........... 1       6.5244 /_   -7.3   0.90622    12.470
L3235253 ........... 1       6.5242 /_   -7.3    0.9062    12.470
L3214071 ........... 1        6.826 /_   -7.4   0.94811    12.470        1-2     11.835 /_   22.5   0.94907
   -                 2       6.8275 /_ -127.6   0.94832    12.470        2-3      11.96 /_  -97.3   0.95913
   -                 3       6.9713 /_  112.2    0.9683    12.470        3-1     11.928 /_  142.1   0.95655
M1125952 ........... 1       6.8199 /_   -7.5   0.94727    12.470        1-2     11.826 /_   22.5   0.94838
   -                 2       6.8226 /_ -127.6   0.94764    12.470        2-3     11.953 /_  -97.4   0.95853
   -                 3       6.9691 /_  112.2   0.96799    12.470        3-1     11.922 /_  142.0   0.95602
M1027101 ........... 2       5.9068 /_ -133.9   0.82044    12.470
L2860480 ........... 2       5.9065 /_ -133.9    0.8204    12.470
L2710517 ........... 1       5.9328 /_  -12.3   0.82405    12.470
M1026646 ........... 1       5.9316 /_  -12.3   0.82388    12.470
M1069662 ........... 2       6.3884 /_ -132.2   0.88734    12.470
L2935547 ........... 2       6.3884 /_ -132.2   0.88733    12.470
M1026931 ........... 1       6.0369 /_  -12.4    0.8385    12.470
L3216336 ........... 1       6.0364 /_  -12.4   0.83844    12.470
L3142049 ........... 1       6.6085 /_   -9.0   0.91791    12.470        1-2     11.527 /_   20.9   0.92438
   -                 2       6.6659 /_ -129.5   0.92588    12.470        2-3     11.701 /_  -98.6   0.93831
   -                 3       6.8917 /_  111.2   0.95724    12.470        3-1     11.701 /_  140.4   0.93837
M1108493 ........... 1       6.6007 /_   -9.0   0.91682    12.470        1-2     11.516 /_   20.8   0.92347
   -                 2       6.6598 /_ -129.6   0.92503    12.470        2-3     11.691 /_  -98.6   0.93753
   -                 3       6.8886 /_  111.1   0.95681    12.470        3-1     11.693 /_  140.4   0.93768
M1069169 ........... 1       6.5294 /_   -7.3   0.90692    12.470        1-2     11.197 /_   22.5   0.89793
   -                 2       6.4162 /_ -127.0    0.8912    12.470        2-3     11.283 /_  -97.5    0.9048
   -                 3       6.5218 /_  111.6   0.90586    12.470        3-1     11.237 /_  142.2    0.9011
L3010556 ........... 1       6.5216 /_   -7.3   0.90583    12.470        1-2     11.184 /_   22.5   0.89685
   -                 2       6.4073 /_ -127.1   0.88995    12.470        2-3     11.272 /_  -97.5   0.90392
   -                 3       6.5195 /_  111.6   0.90554    12.470        3-1     11.228 /_  142.1   0.90042
L2991933 ........... 3       6.5828 /_  108.9   0.91433    12.470
L3122837 ........... 3       6.5821 /_  108.9   0.91424    12.470
L2691936 ........... 1       6.0359 /_  -12.4   0.83837    12.470
L2897772 ........... 1       6.3551 /_   -7.3   0.88271    12.470
L3101814 ........... 1       6.3551 /_   -7.3   0.88271    12.470
L2766732 ........... 2       6.2391 /_ -127.4   0.86659    12.470
L2989564 ........... 2       6.3887 /_ -132.2   0.88738    12.470
M1126016 ........... 1       6.5687 /_   -9.2   0.91238    12.470
L3120534 ........... 1       6.5684 /_   -9.2   0.91233    12.470
M1026330 ........... 1       6.3019 /_   -7.2   0.87532    12.470        1-2       10.8 /_   22.2   0.86608
   -                 2       6.1444 /_ -127.6   0.85345    12.470        2-3      10.97 /_  -97.1   0.87973
   -                 3       6.4772 /_  111.7   0.89967    12.470        3-1     11.006 /_  141.8   0.88263
L2766726 ........... 2       6.1444 /_ -127.6   0.85344    12.470
P901912 ............ 2       6.2522 /_ -132.9   0.86841    12.470
L3195365 ........... 2       6.2522 /_ -132.9   0.86841    12.470
M1108381 ........... 1       6.7032 /_   -8.1   0.93105    12.470        1-2     11.656 /_   21.7   0.93472
   -                 2       6.7261 /_ -128.5   0.93424    12.470        2-3     11.808 /_  -97.9   0.94688
   -                 3         6.93 /_  111.8   0.96256    12.470        3-1       11.8 /_  141.3   0.94629
L3254237 ........... 1       6.7021 /_   -8.1    0.9309    12.470        1-2     11.654 /_   21.7   0.93459
   -                 2       6.7253 /_ -128.5   0.93413    12.470        2-3     11.806 /_  -97.9   0.94677
   -                 3       6.9293 /_  111.8   0.96246    12.470        3-1     11.799 /_  141.3   0.94615
L2804262 ........... 1       6.0539 /_  -12.3   0.84087    12.470
L2841639 ........... 1       6.0517 /_  -12.3   0.84057    12.470
N1230123 ........... 2       6.7326 /_ -128.5   0.93514    12.470
L2708744 ........... 2       6.7311 /_ -128.5   0.93493    12.470
M1069519 ........... 1       6.3745 /_  -10.6    0.8854    12.470        1-2     11.196 /_   19.0   0.89781
   -                 2       6.4716 /_ -131.9   0.89889    12.470        2-3     11.404 /_ -100.1    0.9145
   -                 3       6.8172 /_  109.9    0.9469    12.470        3-1     11.457 /_  138.5   0.91877
P901927 ............ 2       6.4716 /_ -131.9   0.89889    12.470
L2897790 ........... 3       6.8212 /_  109.9   0.94745    12.470
L2935566 ........... 3       6.8211 /_  109.9   0.94743    12.470
L3216337 ........... 1       6.0368 /_  -12.4    0.8385    12.470
P901931 ............ 3       6.8215 /_  109.9   0.94749    12.470
M1069548 ........... 3       6.8215 /_  109.9   0.94748    12.470
M1010013 ........... 1        5.871 /_  -12.8   0.81546    12.470
L3120503 ........... 1       5.8709 /_  -12.8   0.81546    12.470
M1089145 ........... 1       6.7003 /_   -7.2   0.93066    12.470        1-2     11.492 /_   22.7   0.92156
   -                 2       6.5895 /_ -126.9   0.91527    12.470        2-3      11.56 /_  -97.5     0.927
   -                 3       6.6607 /_  111.6   0.92515    12.470        3-1     11.502 /_  142.3   0.92235
L3215385 ........... 1       6.7002 /_   -7.2   0.93065    12.470        1-2     11.492 /_   22.7   0.92155
   -                 2       6.5894 /_ -126.9   0.91525    12.470        2-3      11.56 /_  -97.5   0.92699
   -                 3       6.6606 /_  111.6   0.92514    12.470        3-1     11.502 /_  142.3   0.92234
M1026852 ........... 1       6.0495 /_  -12.3   0.84026    12.470        1-2     10.705 /_   17.7   0.85846
   -                 2       6.2512 /_ -133.3   0.86827    12.470        2-3      11.01 /_ -101.1   0.88291
   -                 3       6.6199 /_  109.1   0.91949    12.470        3-1     11.055 /_  136.9    0.8865
M1069420 ........... 1       6.0555 /_  -11.9   0.84109    12.470        1-2     10.632 /_   17.6   0.85261
   -                 2       6.1358 /_ -133.3   0.85225    12.470        2-3     10.866 /_ -101.3   0.87138
   -                 3       6.5296 /_  108.5   0.90695    12.470        3-1     10.927 /_  137.1   0.87623
L3157708 ........... 3       6.6115 /_  109.2   0.91832    12.470
N1137991 ........... 3       6.6115 /_  109.2   0.91832    12.470
M1108413 ........... 1       6.7076 /_   -8.1   0.93166    12.470
M1108460 ........... 1       6.7053 /_   -8.1   0.93135    12.470
P827532 ............ 1       6.3813 /_   -7.3   0.88634    12.470
M1047326 ........... 1       6.3812 /_   -7.3   0.88634    12.470
E182732 ............ 1       6.0108 /_  -12.1   0.83489    12.470        1-2      10.66 /_   18.2   0.85488
   -                 2        6.254 /_ -132.8   0.86866    12.470        2-3     10.969 /_ -101.0   0.87965
   -                 3       6.5441 /_  109.2   0.90895    12.470        3-1     10.947 /_  137.2    0.8779
M1026760 ........... 1       6.0101 /_  -12.1   0.83479    12.470        1-2      10.66 /_   18.2   0.85481
   -                 2       6.2539 /_ -132.8   0.86865    12.470        2-3     10.969 /_ -101.0   0.87961
   -                 3       6.5436 /_  109.2   0.90889    12.470        3-1     10.946 /_  137.2   0.87782
L3048205 ........... 3       6.7005 /_  111.5   0.93068    12.470
M1108361 ........... 3       6.6875 /_  111.5   0.92887    12.470
M3036169 ........... 1       5.9356 /_  -12.3   0.82444    12.470
L2673317 ........... 1       5.9355 /_  -12.3   0.82443    12.470
L3178981 ........... 2       6.2926 /_ -127.3   0.87403    12.470
M1047368 ........... 2       6.2817 /_ -127.3   0.87251    12.470
N1136354 ........... 1        6.373 /_  -10.6    0.8852    12.470        1-2     11.195 /_   19.0   0.89774
   -                 2       6.4682 /_ -131.9   0.89842    12.470        2-3     11.401 /_ -100.1   0.91425
   -                 3       6.8198 /_  109.9   0.94725    12.470        3-1     11.457 /_  138.5   0.91875
L2879794 ........... 1        6.849 /_   -6.8   0.95131    12.470
M1142811 ........... 1       6.8487 /_   -6.8   0.95127    12.470
M1069565 ........... 2        6.433 /_ -132.1   0.89352    12.470
L2785536 ........... 2       6.4327 /_ -132.1   0.89348    12.470
L3104114 ........... 2       6.1148 /_ -133.9   0.84933    12.470
M1009824 ........... 2        6.112 /_ -133.9   0.84894    12.470
L2745848 ........... 1       6.0693 /_  -12.0   0.84301    12.470        1-2     10.676 /_   17.8   0.85617
   -                 2       6.1881 /_ -133.1   0.85951    12.470        2-3     10.928 /_ -101.2   0.87635
   -                 3       6.5507 /_  108.8   0.90987    12.470        3-1     10.971 /_  137.2   0.87981
L2673308 ........... 1       6.0685 /_  -12.0    0.8429    12.470        1-2     10.674 /_   17.8   0.85597
   -                 2       6.1851 /_ -133.1    0.8591    12.470        2-3     10.925 /_ -101.2   0.87608
   -                 3       6.5496 /_  108.8   0.90973    12.470        3-1     10.969 /_  137.2   0.87962
L2991939 ........... 1       6.0669 /_  -12.0   0.84268    12.470        1-2     10.669 /_   17.7   0.85559
   -                 2       6.1796 /_ -133.1   0.85833    12.470        2-3     10.918 /_ -101.2   0.87555
   -                 3       6.5475 /_  108.7   0.90943    12.470        3-1     10.964 /_  137.1   0.87925
L2916606 ........... 3       6.7199 /_  111.6   0.93338    12.470
L2822864 ........... 3       6.7198 /_  111.6   0.93337    12.470
M1142851 ........... 1       6.9398 /_   -6.6   0.96392    12.470        1-2     12.001 /_   23.3   0.96236
   -                 2       6.9201 /_ -126.6   0.96119    12.470        2-3     12.103 /_  -96.7   0.97054
   -                 3        7.016 /_  112.8    0.9745    12.470        3-1     12.055 /_  142.9    0.9667
196_31070 .......... 1       6.9383 /_   -6.7   0.96371    12.470        1-2     11.998 /_   23.3   0.96218
   -                 2       6.9189 /_ -126.6   0.96101    12.470        2-3     12.101 /_  -96.7   0.97038
   -                 3       7.0153 /_  112.8   0.97441    12.470        3-1     12.053 /_  142.9   0.96656
M1209822 ........... 3       7.1601 /_  115.2   0.99452    12.470
M1209823 ........... 3       7.1568 /_  115.2   0.99406    12.470
M1069550 ........... 2        6.437 /_ -132.0   0.89409    12.470
M1069551 ........... 2       6.4367 /_ -132.0   0.89404    12.470
L3141397 ........... 2       5.9341 /_ -133.8   0.82424    12.470
L3649299 ........... 1       6.0816 /_  -12.2   0.84472    12.470
M3772794 ........... 1       6.0815 /_  -12.2   0.84471    12.470
P895106 ............ 2       6.7856 /_ -128.1    0.9425    12.470
L3048887 ........... 2       6.7852 /_ -128.1   0.94244    12.470
M1047824 ........... 2        5.912 /_ -133.9   0.82116    12.470
M1047834 ........... 2       5.9082 /_ -133.9   0.82064    12.470
M1069350 ........... 1       6.0535 /_  -11.9   0.84082    12.470        1-2     10.609 /_   17.5    0.8508
   -                 2       6.1072 /_ -133.4   0.84827    12.470        2-3     10.831 /_ -101.4   0.86853
   -                 3       6.5086 /_  108.3   0.90403    12.470        3-1     10.895 /_  137.0   0.87373
N1144668 ........... 1       6.0538 /_  -11.9   0.84086    12.470        1-2     10.609 /_   17.5   0.85079
   -                 2        6.107 /_ -133.4   0.84825    12.470        2-3      10.83 /_ -101.4    0.8685
   -                 3       6.5078 /_  108.3   0.90391    12.470        3-1     10.895 /_  137.0   0.87367
L2879072 ........... 2       6.0679 /_ -133.5   0.84282    12.470
M1047441 ........... 2       6.0553 /_ -133.6   0.84107    12.470
M1108274 ........... 2       6.4766 /_ -127.0   0.89959    12.470
M1108269 ........... 2       6.4765 /_ -127.0   0.89957    12.470
L3235244 ........... 1       6.0456 /_  -11.9   0.83972    12.470
M1069398 ........... 1       6.0453 /_  -11.9   0.83967    12.470
N1147862 ........... 1       5.9725 /_  -12.5   0.82956    12.470
L2685805 ........... 1       5.9723 /_  -12.5   0.82954    12.470
M1069247 ........... 1       6.0505 /_  -11.9   0.84039    12.470
M1069248 ........... 1       6.0502 /_  -11.9   0.84036    12.470
L2786273 ........... 2       6.4759 /_ -127.0   0.89949    12.470
M1108278 ........... 2       6.4754 /_ -127.0   0.89942    12.470
L3254238 ........... 1       6.3499 /_   -7.3   0.88198    12.470        1-2     10.894 /_   22.3   0.87359
   -                 2       6.2202 /_ -127.4   0.86396    12.470        2-3     11.043 /_  -97.2   0.88558
   -                 3       6.4717 /_  111.7   0.89891    12.470        3-1     11.044 /_  141.9   0.88566
M1047303 ........... 1       6.3453 /_   -7.3   0.88135    12.470        1-2     10.885 /_   22.3   0.87288
   -                 2       6.2135 /_ -127.4   0.86304    12.470        2-3     11.035 /_  -97.2   0.88494
   -                 3         6.47 /_  111.7   0.89867    12.470        3-1     11.039 /_  141.9   0.88521
M1047633 ........... 3       6.6444 /_  109.1    0.9229    12.470
L2897554 ........... 3       6.6439 /_  109.1   0.92282    12.470
M1069627 ........... 2       6.3871 /_ -132.2   0.88715    12.470
L2897791 ........... 2       6.3857 /_ -132.2   0.88696    12.470
M1089097 ........... 2       6.4804 /_ -127.0   0.90012    12.470
M1108270 ........... 2       6.4795 /_ -127.0   0.89999    12.470
N1142101 ........... 1       6.6126 /_   -8.9   0.91847    12.470
L2936214 ........... 1       6.6125 /_   -8.9   0.91846    12.470
L3066810 ........... 3       6.5353 /_  108.6   0.90773    12.470
L2897769 ........... 3       6.5342 /_  108.6   0.90759    12.470
M1209758 ........... 2       7.1168 /_ -125.0   0.98851    12.470
M1209753 ........... 2       7.1163 /_ -125.0   0.98844    12.470
M1047528 ........... 1       6.1504 /_  -11.9   0.85428    12.470        1-2     10.843 /_   18.0    0.8695
   -                 2       6.3051 /_ -132.9   0.87576    12.470        2-3     11.111 /_ -100.9   0.89104
   -                 3       6.6616 /_  109.2   0.92528    12.470        3-1     11.157 /_  137.4   0.89469
L2858166 ........... 1         6.15 /_  -11.9   0.85421    12.470        1-2     10.842 /_   18.0   0.86945
   -                 2       6.3047 /_ -132.9   0.87571    12.470        2-3     11.111 /_ -100.9   0.89099
   -                 3       6.6614 /_  109.2   0.92525    12.470        3-1     11.156 /_  137.4   0.89465
M1142843 ........... 1        6.955 /_   -6.5   0.96603    12.470        1-2     12.023 /_   23.4   0.96416
   -                 2       6.9325 /_ -126.5   0.96291    12.470        2-3     12.122 /_  -96.6   0.97206
   -                 3       7.0224 /_  112.9    0.9754    12.470        3-1     12.072 /_  143.0   0.96809
L3081380 ........... 1       6.9535 /_   -6.6   0.96582    12.470        1-2     12.017 /_   23.4   0.96368
   -                 2       6.9278 /_ -126.5   0.96225    12.470        2-3     12.116 /_  -96.6   0.97158
   -                 3       7.0173 /_  112.9   0.97469    12.470        3-1     12.065 /_  143.0   0.96749
L2804272 ........... 2       6.4363 /_ -132.0   0.89398    12.470
L2841641 ........... 2       6.4362 /_ -132.0   0.89397    12.470
M1069393 ........... 2        6.089 /_ -133.5   0.84575    12.470
M1069408 ........... 2       6.0845 /_ -133.5   0.84513    12.470
N1142104 ........... 1       6.5892 /_   -9.1   0.91523    12.470        1-2     11.499 /_   20.8   0.92214
   -                 2        6.651 /_ -129.7    0.9238    12.470        2-3     11.677 /_  -98.7    0.9364
   -                 3       6.8841 /_  111.1   0.95618    12.470        3-1     11.681 /_  140.3   0.93669
M1108500 ........... 1        6.585 /_   -9.1   0.91464    12.470        1-2     11.493 /_   20.7   0.92165
   -                 2       6.6477 /_ -129.7   0.92335    12.470        2-3     11.672 /_  -98.7   0.93599
   -                 3       6.8824 /_  111.1   0.95595    12.470        3-1     11.676 /_  140.2   0.93633
L3216348 ........... 1       5.9081 /_  -12.3   0.82062    12.470
L2841627 ........... 1       5.9067 /_  -12.3   0.82042    12.470
L2916599 ........... 1       6.0411 /_  -12.4    0.8391    12.470
M1047447 ........... 2        6.042 /_ -133.6   0.83921    12.470
L2954349 ........... 2       6.0418 /_ -133.6    0.8392    12.470
L3235246 ........... 2       5.9122 /_ -133.9   0.82119    12.470
M1125911 ........... 2       6.7546 /_ -126.7    0.9382    12.470
L2711224 ........... 2       6.7532 /_ -126.7   0.93801    12.470
N1147863 ........... 3       6.5935 /_  108.9   0.91581    12.470
L3122817 ........... 3       6.5934 /_  108.9   0.91581    12.470
M1186061 ........... 1       7.1367 /_   -5.0   0.99126    12.470        1-2     12.341 /_   24.9   0.98966
   -                 2       7.1185 /_ -125.0   0.98875    12.470        2-3     12.398 /_  -95.1    0.9942
   -                 3       7.1611 /_  114.5   0.99466    12.470        3-1     12.355 /_  144.7    0.9908
L2861223 ........... 2       7.1184 /_ -125.0   0.98873    12.470
M1069130 ........... 1       6.4281 /_   -7.3   0.89284    12.470
L3085396 ........... 1       6.4278 /_   -7.3    0.8928    12.470
E182730 ............ 1       6.0197 /_  -12.1   0.83612    12.470
N1142109 ........... 1       6.0196 /_  -12.1   0.83611    12.470
M1069417 ........... 1       6.0521 /_  -11.9   0.84061    12.470        1-2      10.62 /_   17.5   0.85164
   -                 2       6.1209 /_ -133.4   0.85018    12.470        2-3     10.849 /_ -101.4   0.86999
   -                 3       6.5238 /_  108.5   0.90614    12.470        3-1     10.914 /_  137.0   0.87524
N1138597 ........... 1       6.0518 /_  -11.9   0.84058    12.470        1-2     10.619 /_   17.5   0.85156
   -                 2       6.1197 /_ -133.4   0.85001    12.470        2-3     10.847 /_ -101.4   0.86987
   -                 3       6.5233 /_  108.5   0.90607    12.470        3-1     10.913 /_  137.0   0.87515
M1026987 ........... 2       5.9283 /_ -133.8   0.82343    12.470
M1026990 ........... 2        5.927 /_ -133.8   0.82325    12.470
M1142832 ........... 1       6.9504 /_   -6.6   0.96539    12.470        1-2     12.005 /_   23.3   0.96267
   -                 2       6.9179 /_ -126.5   0.96088    12.470        2-3     12.103 /_  -96.7   0.97056
   -                 3       7.0067 /_  112.7   0.97322    12.470        3-1     12.049 /_  142.9   0.96622
L3160865 ........... 1       6.9494 /_   -6.7   0.96525    12.470        1-2     12.001 /_   23.3   0.96238
   -                 2       6.9151 /_ -126.6   0.96049    12.470        2-3     12.099 /_  -96.7   0.97027
   -                 3       7.0039 /_  112.7   0.97282    12.470        3-1     12.044 /_  142.9   0.96587
L2673323 ........... 3       6.5824 /_  108.9   0.91428    12.470
M1009809 ........... 3       6.5822 /_  108.9   0.91425    12.470
L2822869 ........... 1       6.0726 /_  -12.0   0.84347    12.470        1-2     10.729 /_   18.1   0.86036
   -                 2       6.2607 /_ -132.8    0.8696    12.470        2-3     11.011 /_ -101.0   0.88299
   -                 3        6.585 /_  109.2   0.91464    12.470        3-1     11.027 /_  137.3   0.88428
M1026808 ........... 1       6.0645 /_  -12.0   0.84235    12.470        1-2      10.72 /_   18.1   0.85964
   -                 2       6.2598 /_ -132.8   0.86947    12.470        2-3     11.005 /_ -101.0   0.88251
   -                 3        6.579 /_  109.2    0.9138    12.470        3-1     11.016 /_  137.3   0.88339
M1047825 ........... 2       5.9002 /_ -133.9   0.81952    12.470
M1069731 ........... 2       5.8988 /_ -133.9   0.81933    12.470
N1140520 ........... 3        6.579 /_  109.2    0.9138    12.470
L2729410 ........... 3       6.5789 /_  109.2    0.9138    12.470
L3178978 ........... 1       5.9274 /_  -12.3   0.82331    12.470
M1069384 ........... 1       6.0469 /_  -11.9   0.83989    12.470
L3066805 ........... 1       6.0468 /_  -11.9   0.83988    12.470
M4362181 ........... 2       6.0258 /_ -133.7   0.83696    12.470
M1047319 ........... 3        6.465 /_  111.7   0.89797    12.470
M1047318 ........... 3       6.4646 /_  111.7   0.89791    12.470
L3216358 ........... 1       6.0309 /_  -12.4   0.83768    12.470
M1026826 ........... 1       6.0297 /_  -12.4   0.83752    12.470
M1108276 ........... 2       6.4762 /_ -127.0   0.89953    12.470
M1089198 ........... 1        6.469 /_  -10.0   0.89853    12.470        1-2     11.326 /_   19.8   0.90824
   -                 2       6.5518 /_ -130.9   0.91002    12.470        2-3     11.524 /_  -99.5   0.92416
   -                 3       6.8408 /_  110.4   0.95016    12.470        3-1     11.551 /_  139.3    0.9263
M1089201 ........... 1       6.4535 /_  -10.1   0.89638    12.470        1-2     11.304 /_   19.6   0.90649
   -                 2       6.5392 /_ -131.0   0.90828    12.470        2-3     11.505 /_  -99.6    0.9226
   -                 3       6.8357 /_  110.3   0.94946    12.470        3-1     11.535 /_  139.2   0.92501
M1047763 ........... 1       6.0136 /_  -11.5   0.83527    12.470        1-2     10.489 /_   17.3   0.84113
   -                 2       5.9623 /_ -133.7   0.82815    12.470        2-3     10.802 /_ -100.3   0.86621
   -                 3       6.6918 /_  109.2   0.92948    12.470        3-1     11.042 /_  137.1   0.88551
N1136027 ........... 1       6.0133 /_  -11.5   0.83523    12.470
L3101827 ........... 3       6.8656 /_  110.8   0.95362    12.470
M1108540 ........... 3       6.8624 /_  110.8   0.95318    12.470
M1026335 ........... 1       6.3027 /_   -7.2   0.87543    12.470
L2804259 ........... 1       6.3026 /_   -7.2   0.87542    12.470
N1136357 ........... 3       6.8214 /_  109.9   0.94747    12.470
M1047513 ........... 1       6.1051 /_  -11.9   0.84798    12.470        1-2      10.77 /_   18.1   0.86369
   -                 2       6.2718 /_ -132.9   0.87113    12.470        2-3     11.043 /_ -100.9   0.88555
   -                 3       6.6116 /_  109.2   0.91833    12.470        3-1     11.075 /_  137.4   0.88813
M1047507 ........... 1       6.0933 /_  -11.9   0.84634    12.470        1-2     10.751 /_   18.1   0.86219
   -                 2       6.2629 /_ -132.9    0.8699    12.470        2-3     11.026 /_ -100.9   0.88417
   -                 3          6.6 /_  109.2   0.91672    12.470        3-1     11.055 /_  137.3   0.88653
M1142863 ........... 1       6.9233 /_   -6.8   0.96163    12.470        1-2     11.976 /_   23.2   0.96041
   -                 2       6.9067 /_ -126.7   0.95932    12.470        2-3     12.082 /_  -96.8   0.96887
   -                 3        7.009 /_  112.8   0.97353    12.470        3-1     12.036 /_  142.8   0.96519
N1141480 ........... 3        7.009 /_  112.8   0.97353    12.470
M1125916 ........... 2        6.756 /_ -126.7   0.93838    12.470
...